<?xml version='1.0' encoding='utf-8'?>
<routes><route id="12" town="Town03">
      <weathers>
         <weather cloudiness="90.000000" fog_density="0.000000" fog_distance="0.000000" precipitation="15.000000" precipitation_deposits="50.000000" route_percentage="0" sun_altitude_angle="0.000000" sun_azimuth_angle="45.000000" wetness="0.000000" wind_intensity="0.350000" />
      </weathers>
      <waypoints><position x="92.59245378064593" y="210.70800389366156" z="1.0590637922286987" /><position x="164.58360290527344" y="105.46302795410156" z="0.32625898718833923" /><position x="115.01752471923828" y="129.45130920410156" z="0.27443236112594604" /><position x="8.326837539672852" y="-73.14237976074219" z="0.0" /><position x="-16.644344329833984" y="-138.62892150878906" z="0.0" /><position x="-149.0000762939453" y="-15.698934555053711" z="0.0" /><position x="-104.73693084716797" y="-3.1559019088745117" z="0.0" /><position x="-145.46336364746094" y="-86.15687561035156" z="0.48909232020378113" /><position x="-137.93258666992188" y="-117.57965087890625" z="0.8658750653266907" /><position x="-74.85525823610183" y="-158.8334271034602" z="0.0" /></waypoints><scenarios>
         <scenario name="OppositeVehicleRunningRedLight_1" type="OppositeVehicleRunningRedLight">
            <trigger_point x="243.21473693847656" y="98.97915649414062" yaw="271.3932189941406" z="0.29888251423835754" />
         </scenario>
         <scenario name="SignalizedJunctionRightTurn_1" type="SignalizedJunctionRightTurn">
            <trigger_point x="9.33" y="-104.82" yaw="270.0" z="1.0" />
         </scenario>
         <scenario name="ControlLoss_1" type="ControlLoss">
            <trigger_point x="37.76" y="-137.76" yaw="181.0" z="3.73" />
         </scenario>
         <scenario name="SignalizedJunctionLeftTurn_1" type="SignalizedJunctionLeftTurn">
            <trigger_point x="-32.30937957763672" y="-198.31613159179688" yaw="1.439544677734375" z="0.0" />
         </scenario>
         <scenario name="DynamicObjectCrossing_1" type="DynamicObjectCrossing">
            <trigger_point x="242.86146545410156" y="113.50442504882812" yaw="271.3932189941406" z="0.5679125189781189" />
         </scenario>
         <scenario name="DynamicObjectCrossing_2" type="DynamicObjectCrossing">
            <trigger_point x="-87.55733489990234" y="167.6916961669922" yaw="438.6856689453125" z="0.0" />
         </scenario>
         <scenario name="DynamicObjectCrossing_3" type="DynamicObjectCrossing">
            <trigger_point x="52.918731689453125" y="207.39906311035156" yaw="359.8570556640625" z="0.2592363655567169" />
         </scenario>
         <scenario name="ControlLoss_2" type="ControlLoss">
            <trigger_point x="53.697120666503906" y="-196.15476989746094" yaw="1.439544677734375" z="0.0" />
         </scenario>
         <scenario name="SignalizedJunctionLeftTurn_2" type="SignalizedJunctionLeftTurn">
            <trigger_point x="52.2" y="-133.34" yaw="1.0" z="6.48" />
         </scenario>
         <scenario name="SignalizedJunctionRightTurn_2" type="SignalizedJunctionRightTurn">
            <trigger_point x="119.41" y="-132.31" yaw="1.0" z="9.0" />
         </scenario>
         <scenario name="SignalizedJunctionRightTurn_3" type="SignalizedJunctionRightTurn">
            <trigger_point x="-117.14" y="136.33" yaw="359.0" z="1.0" />
         </scenario>
         <scenario name="OppositeVehicleRunningRedLight_2" type="OppositeVehicleRunningRedLight">
            <trigger_point x="34.39" y="130.77" yaw="179.0" z="1.0" />
         </scenario>
         <scenario name="SignalizedJunctionRightTurn_4" type="SignalizedJunctionRightTurn">
            <trigger_point x="-116.7" y="-3.3" yaw="180.0" z="1.0" />
         </scenario>
         <scenario name="ControlLoss_3" type="ControlLoss">
            <trigger_point x="-149.26" y="-29.42" yaw="90.0" z="1.0" />
         </scenario>
         <scenario name="ControlLoss_4" type="ControlLoss">
            <trigger_point x="-77.8" y="34.5" yaw="269.0" z="1.3" />
         </scenario>
         <scenario name="SignalizedJunctionLeftTurn_3" type="SignalizedJunctionLeftTurn">
            <trigger_point x="-77.77780151367188" y="31.9595947265625" yaw="269.84375" z="0.13858206570148468" />
         </scenario>
         <scenario name="DynamicObjectCrossing_4" type="DynamicObjectCrossing">
            <trigger_point x="-77.7" y="69.11" yaw="270.0" z="2.62" />
         </scenario>
         <scenario name="DynamicObjectCrossing_5" type="DynamicObjectCrossing">
            <trigger_point x="8.455883979797363" y="-78.37200164794922" yaw="-88.58646392822266" z="0.0" />
         </scenario>
         <scenario name="ControlLoss_5" type="ControlLoss">
            <trigger_point x="5.094234466552734" y="69.08776092529297" yaw="269.637451171875" z="0.0" />
         </scenario>
         <scenario name="DynamicObjectCrossing_6" type="DynamicObjectCrossing">
            <trigger_point x="141.91873168945312" y="207.17698669433594" yaw="359.8570556640625" z="2.23475980758667" />
         </scenario>
         <scenario name="ControlLoss_6" type="ControlLoss">
            <trigger_point x="46.52" y="-196.33" yaw="1.0" z="1.8" />
         </scenario>
      </scenarios>
   </route>
   </routes>