<?xml version='1.0' encoding='utf-8'?>
<routes><route id="24" town="Town05">
      <weathers>
         <weather cloudiness="10.0" fog_density="0.0" fog_distance="0.0" precipitation="0.0" precipitation_deposits="0.0" route_percentage="0" sun_altitude_angle="60.0" sun_azimuth_angle="90.0" wetness="0.0" wind_intensity="0.2" />
      </weathers>
      <waypoints><position x="6.994609226734418" y="-86.48549362970138" z="0.0" /><position x="-121.21861267089844" y="-68.33349609375" z="-1.52587890625e-05" /><position x="-59.62218475341797" y="-123.426025390625" z="0.055450439453125" /><position x="8.542202949523926" y="2.5285346508026123" z="0.0" /><position x="103.43067932128906" y="-13.20467472076416" z="0.0" /><position x="49.88869857788086" y="-91.25897216796875" z="0.0" /><position x="-175.87326049804688" y="-142.3548583984375" z="0.055450439453125" /><position x="-106.45569610595703" y="91.44489288330078" z="0.0" /><position x="-70.38335418701172" y="91.48616027832031" z="0.0" /><position x="87.92790365833217" y="76.49300274404702" z="0.0" /></waypoints><scenarios>
         <scenario name="SignalizedJunctionRightTurn_1" type="SignalizedJunctionRightTurn">
            <trigger_point x="-120.85" y="-107.55" yaw="270.0" z="1.5" />
         </scenario>
         <scenario name="SignalizedJunctionLeftTurn_1" type="SignalizedJunctionLeftTurn">
            <trigger_point x="-238.41" y="0.13" yaw="180.0" z="1.5" />
         </scenario>
         <scenario name="ControlLoss_1" type="ControlLoss">
            <trigger_point x="68.42" y="2.5" yaw="359.0" z="1.5" />
         </scenario>
         <scenario name="SignalizedJunctionLeftTurn_2" type="SignalizedJunctionLeftTurn">
            <trigger_point x="-121.2" y="-56.45" yaw="270.0" z="1.0" />
         </scenario>
         <scenario name="SignalizedJunctionRightTurn_2" type="SignalizedJunctionRightTurn">
            <trigger_point x="-93.16" y="-4.19" yaw="180.0" z="1.0" />
         </scenario>
         <scenario name="SignalizedJunctionLeftTurn_3" type="SignalizedJunctionLeftTurn">
            <trigger_point x="-83.9060287475586" y="91.47069549560547" yaw="0.0655517578125" z="0.0" />
         </scenario>
         <scenario name="SignalizedJunctionLeftTurn_4" type="SignalizedJunctionLeftTurn">
            <trigger_point x="-162.38571166992188" y="91.38089752197266" yaw="0.0655517578125" z="0.0" />
         </scenario>
         <scenario name="SignalizedJunctionLeftTurn_5" type="SignalizedJunctionLeftTurn">
            <trigger_point x="-15.85" y="-4.3" yaw="180.0" z="1.0" />
         </scenario>
         <scenario name="ControlLoss_2" type="ControlLoss">
            <trigger_point x="-51.15256881713867" y="-31.7597713470459" yaw="89.66251373291016" z="0.055450439453125" />
         </scenario>
         <scenario name="SignalizedJunctionRightTurn_3" type="SignalizedJunctionRightTurn">
            <trigger_point x="-47.7984733581543" y="-56.53986358642578" yaw="269.6625061035156" z="0.055450439453125" />
         </scenario>
         <scenario name="ControlLoss_3" type="ControlLoss">
            <trigger_point x="-17.11" y="-94.93" yaw="180.0" z="1.0" />
         </scenario>
         <scenario name="ControlLoss_4" type="ControlLoss">
            <trigger_point x="-59.20102310180664" y="-122.86930084228516" yaw="53.40818786621094" z="0.055450439453125" />
         </scenario>
         <scenario name="OppositeVehicleRunningRedLight_1" type="OppositeVehicleRunningRedLight">
            <trigger_point x="28.13" y="56.9" yaw="90.0" z="1.0" />
         </scenario>
         <scenario name="ControlLoss_5" type="ControlLoss">
            <trigger_point x="-2.78" y="91.79" yaw="359.0" z="0.99" />
         </scenario>
         <scenario name="OppositeVehicleRunningRedLight_2" type="OppositeVehicleRunningRedLight">
            <trigger_point x="62.71" y="-1.48" yaw="180.0" z="1.0" />
         </scenario>
         <scenario name="ControlLoss_6" type="ControlLoss">
            <trigger_point x="27.99" y="-32.52" yaw="90.0" z="1.0" />
         </scenario>
         <scenario name="ControlLoss_7" type="ControlLoss">
            <trigger_point x="-2.66" y="1.61" yaw="0.0" z="0.99" />
         </scenario>
         <scenario name="SignalizedJunctionLeftTurn_6" type="SignalizedJunctionLeftTurn">
            <trigger_point x="64.4598617553711" y="-90.88241577148438" yaw="-171.14675903320312" z="0.0" />
         </scenario>
         <scenario name="ControlLoss_8" type="ControlLoss">
            <trigger_point x="0.7252919673919678" y="-87.89270782470703" yaw="0.0863037109375" z="0.0" />
         </scenario>
         <scenario name="SignalizedJunctionRightTurn_4" type="SignalizedJunctionRightTurn">
            <trigger_point x="-195.4" y="-31.55" yaw="90.0" z="1.0" />
         </scenario>
      </scenarios>
   </route>
   </routes>