<?xml version='1.0' encoding='utf-8'?>
<routes><route id="30" town="Town06">
      <weathers>
         <weather cloudiness="90.000000" fog_density="0.000000" fog_distance="0.000000" precipitation="15.000000" precipitation_deposits="50.000000" route_percentage="0" sun_altitude_angle="15.000000" sun_azimuth_angle="315.000000" wetness="0.000000" wind_intensity="0.350000" />
      </weathers>
      <waypoints><position x="178.70281006115448" y="174.38975489012356" z="0.0" /><position x="298.9736633300781" y="151.15452575683594" z="0.0" /><position x="536.9036254882812" y="145.12933349609375" z="0.0" /><position x="658.3932495117188" y="113.6989974975586" z="0.0" /><position x="658.7847900390625" y="77.60237121582031" z="0.0" /><position x="404.32415771484375" y="-20.90955924987793" z="0.0" /><position x="321.3387756347656" y="-24.107328414916992" z="0.0" /><position x="3.1737372875213623" y="-109.28813171386719" z="0.0" /><position x="-247.00643920898438" y="180.6178741455078" z="0.0" /><position x="-148.19005947242192" y="151.31566892367803" z="0.0" /></waypoints><scenarios>
         <scenario name="SignalizedJunctionLeftTurn_1" type="SignalizedJunctionLeftTurn">
            <trigger_point x="658.7252197265625" y="83.09326171875" yaw="270.62139892578125" z="0.0" />
         </scenario>
         <scenario name="SignalizedJunctionLeftTurn_2" type="SignalizedJunctionLeftTurn">
            <trigger_point x="-5.3" y="-53.6" yaw="90.0" z="1.0" />
         </scenario>
         <scenario name="SignalizedJunctionLeftTurn_3" type="SignalizedJunctionLeftTurn">
            <trigger_point x="172.56297302246094" y="-23.565448760986328" yaw="179.79132080078125" z="0.0" />
         </scenario>
         <scenario name="SignalizedJunctionLeftTurn_4" type="SignalizedJunctionLeftTurn">
            <trigger_point x="626.658935546875" y="138.49703979492188" yaw="0.23475661873817444" z="0.0" />
         </scenario>
         <scenario name="DynamicObjectCrossing_1" type="DynamicObjectCrossing">
            <trigger_point x="301.41" y="-24.1" yaw="179.0" z="1.9" />
         </scenario>
         <scenario name="DynamicObjectCrossing_2" type="DynamicObjectCrossing">
            <trigger_point x="455.2084045410156" y="-21.04481315612793" yaw="-179.87489318847656" z="0.0" />
         </scenario>
         <scenario name="DynamicObjectCrossing_3" type="DynamicObjectCrossing">
            <trigger_point x="607.8858642578125" y="-9.908886909484863" yaw="180.41941833496094" z="0.0" />
         </scenario>
         <scenario name="DynamicObjectCrossing_4" type="DynamicObjectCrossing">
            <trigger_point x="477.3111572265625" y="144.8851776123047" yaw="0.23475661873817444" z="0.0" />
         </scenario>
         <scenario name="DynamicObjectCrossing_5" type="DynamicObjectCrossing">
            <trigger_point x="324.35003662109375" y="151.2584991455078" yaw="0.23475661873817444" z="0.0" />
         </scenario>
         <scenario name="DynamicObjectCrossing_6" type="DynamicObjectCrossing">
            <trigger_point x="-173.41339111328125" y="236.56182861328125" yaw="-0.10308279097080231" z="0.0" />
         </scenario>
         <scenario name="ControlLoss_1" type="ControlLoss">
            <trigger_point x="-85.49070739746094" y="138.93931579589844" yaw="180.13438415527344" z="0.0" />
         </scenario>
         <scenario name="ControlLoss_2" type="ControlLoss">
            <trigger_point x="503.53302001953125" y="-20.93929672241211" yaw="-179.87489318847656" z="0.0" />
         </scenario>
         <scenario name="SignalizedJunctionLeftTurn_5" type="SignalizedJunctionLeftTurn">
            <trigger_point x="-5.604596138000488" y="10.62265682220459" yaw="90.3823013305664" z="0.0" />
         </scenario>
      </scenarios>
   </route>
   </routes>