<?xml version='1.0' encoding='utf-8'?>
<routes><route id="24" town="Town05">
      <weathers>
         <weather cloudiness="30.0" fog_density="0.0" fog_distance="0.0" precipitation="0.0" precipitation_deposits="0.0" route_percentage="0" sun_altitude_angle="2.0" sun_azimuth_angle="180.0" wetness="0.0" wind_intensity="0.3" />
      </weathers>
      <waypoints><position x="-48.7510580918719" y="-72.28789525071522" z="0.055450439453125" /><position x="7.101250171661377" y="-4.467978477478027" z="0.0" /><position x="-103.96062469482422" y="-138.6464385986328" z="0.055450439453125" /><position x="-70.01483917236328" y="-132.78219604492188" z="0.055450439453125" /><position x="-52.543643951416016" y="-108.44900512695312" z="0.055450439453125" /><position x="-51.077064514160156" y="-18.941566467285156" z="0.055450439453125" /><position x="85.06463623046875" y="1.9349045753479004" z="0.0" /><position x="-93.39543914794922" y="-145.56504821777344" z="0.055450439453125" /><position x="-159.23411560058594" y="-146.0736083984375" z="0.055450439453125" /><position x="67.84494629279536" y="87.58842593627328" z="0.0" /></waypoints><scenarios>
         <scenario name="SignalizedJunctionRightTurn_1" type="SignalizedJunctionRightTurn">
            <trigger_point x="-120.85" y="-107.55" yaw="270.0" z="1.5" />
         </scenario>
         <scenario name="SignalizedJunctionLeftTurn_1" type="SignalizedJunctionLeftTurn">
            <trigger_point x="-238.41" y="0.13" yaw="180.0" z="1.5" />
         </scenario>
         <scenario name="ControlLoss_1" type="ControlLoss">
            <trigger_point x="68.42" y="2.5" yaw="359.0" z="1.5" />
         </scenario>
         <scenario name="SignalizedJunctionLeftTurn_2" type="SignalizedJunctionLeftTurn">
            <trigger_point x="-121.2" y="-56.45" yaw="270.0" z="1.0" />
         </scenario>
         <scenario name="SignalizedJunctionRightTurn_2" type="SignalizedJunctionRightTurn">
            <trigger_point x="-93.16" y="-4.19" yaw="180.0" z="1.0" />
         </scenario>
         <scenario name="SignalizedJunctionLeftTurn_3" type="SignalizedJunctionLeftTurn">
            <trigger_point x="-83.9060287475586" y="91.47069549560547" yaw="0.0655517578125" z="0.0" />
         </scenario>
         <scenario name="SignalizedJunctionLeftTurn_4" type="SignalizedJunctionLeftTurn">
            <trigger_point x="-162.38571166992188" y="91.38089752197266" yaw="0.0655517578125" z="0.0" />
         </scenario>
         <scenario name="SignalizedJunctionLeftTurn_5" type="SignalizedJunctionLeftTurn">
            <trigger_point x="-15.85" y="-4.3" yaw="180.0" z="1.0" />
         </scenario>
         <scenario name="ControlLoss_2" type="ControlLoss">
            <trigger_point x="-51.15256881713867" y="-31.7597713470459" yaw="89.66251373291016" z="0.055450439453125" />
         </scenario>
         <scenario name="SignalizedJunctionRightTurn_3" type="SignalizedJunctionRightTurn">
            <trigger_point x="-47.7984733581543" y="-56.53986358642578" yaw="269.6625061035156" z="0.055450439453125" />
         </scenario>
         <scenario name="ControlLoss_3" type="ControlLoss">
            <trigger_point x="-17.11" y="-94.93" yaw="180.0" z="1.0" />
         </scenario>
         <scenario name="ControlLoss_4" type="ControlLoss">
            <trigger_point x="-59.20102310180664" y="-122.86930084228516" yaw="53.40818786621094" z="0.055450439453125" />
         </scenario>
         <scenario name="OppositeVehicleRunningRedLight_1" type="OppositeVehicleRunningRedLight">
            <trigger_point x="28.13" y="56.9" yaw="90.0" z="1.0" />
         </scenario>
         <scenario name="ControlLoss_5" type="ControlLoss">
            <trigger_point x="-2.78" y="91.79" yaw="359.0" z="0.99" />
         </scenario>
         <scenario name="OppositeVehicleRunningRedLight_2" type="OppositeVehicleRunningRedLight">
            <trigger_point x="62.71" y="-1.48" yaw="180.0" z="1.0" />
         </scenario>
         <scenario name="ControlLoss_6" type="ControlLoss">
            <trigger_point x="27.99" y="-32.52" yaw="90.0" z="1.0" />
         </scenario>
         <scenario name="ControlLoss_7" type="ControlLoss">
            <trigger_point x="-2.66" y="1.61" yaw="0.0" z="0.99" />
         </scenario>
         <scenario name="SignalizedJunctionLeftTurn_6" type="SignalizedJunctionLeftTurn">
            <trigger_point x="64.4598617553711" y="-90.88241577148438" yaw="-171.14675903320312" z="0.0" />
         </scenario>
         <scenario name="ControlLoss_8" type="ControlLoss">
            <trigger_point x="0.7252919673919678" y="-87.89270782470703" yaw="0.0863037109375" z="0.0" />
         </scenario>
         <scenario name="SignalizedJunctionRightTurn_4" type="SignalizedJunctionRightTurn">
            <trigger_point x="-195.4" y="-31.55" yaw="90.0" z="1.0" />
         </scenario>
      </scenarios>
   </route>
   </routes>